10

Nd	0.0	0.0	0.0
O	-1.5807367418158988	-0.7161692156262423	1.7604352731686985
O	0.18624589857897725	1.6994281455900346	1.782833597438899
O	1.418964519216865	-1.0695177221394123	1.7178384590465352
O	0.21793486872014262	1.6967559905361886	-1.7848076194941833
O	1.3902650600058803	-1.0749377212681237	-1.7365813968307793
O	-1.5898941809569573	-0.7091003788282448	-1.7588678839099445
O	-1.9932587139469733	1.4659152807403193	-0.002965039036609678
O	-0.2972272819888575	-2.480726369619735	0.010252510561066885
O	2.2747061311671177	0.9923090229850151	0.016882029595036024
