10

Nd	0.0	0.0	0.0
O	-1.6356846069811635	-0.6940644125720988	1.7178384590465352
O	0.1701658301756236	1.7270026262256897	1.7604352731686985
O	1.3785818247914812	-1.0110030209644116	1.782833597438899
O	0.18086616241321862	1.7313985501228473	-1.7588678839099445
O	1.3604232534442682	-1.0371095915797377	-1.7848076194941833
O	-1.6260285966211354	-0.6665006813310306	-1.7365813968307793
O	-1.999695395096262	1.497762011012218	0.010252510561066885
O	-0.27801345167853575	-2.4660500210832317	0.016882029595036024
O	2.266111990094603	0.9932044059079193	-0.002965039036609678
