10

Nd        0.000000    0.000000    0.000000
O         0.101797    1.693676    1.797737
O         1.404003   -1.000995    1.768622
O        -1.619128   -0.786731    1.693451
O         1.404174   -0.951097   -1.798812
O        -1.593566   -0.684679   -1.759490
O         0.129520    1.774008   -1.720559
O         2.230477    1.070520    0.030919
O        -2.050325    1.427468    0.030903
O        -0.192721   -2.474010   -0.037193