28

Nd	0.0	0.0	0.0
O	0.5500625254836129	1.645444219422636	-1.7608815639279172
O	-1.6723773150873742	-0.35908964549264594	-1.7819786573915848
O	1.2080542539789885	-1.3024550283119551	-1.7182878847312455
O	-1.6647399230947235	-0.3899548411925867	1.785662607357292
O	1.2122001142866654	-1.2729792704094618	1.7361271985451394
O	0.5438131331414072	1.654211266617346	1.7584241378473418
O	-1.6618887729474492	1.8330601743584447	0.003578550294749174
O	2.437373073861762	0.5491199352747763	-0.01150163273164974
O	-0.7547239715292856	-2.3641864501840484	-0.01625849793850913
H	0.02935139834350987	2.450384359454228	-1.895039219912977
H	-1.7537173523210676	0.12210675709693006	-2.6174684775831136
H	0.8563186869295132	-1.6455447418081088	-2.5520495131086323
H	-2.438013325271841	0.1772437451281016	1.9174678014326374
H	1.5888089131132943	-0.922908076831673	2.5559493074964577
H	1.437432432792527	2.005803482671608	1.8783297967091974
H	-1.6128562327513356	2.6525916566208694	0.515954154883483
H	-2.4938720319349272	1.8597137029428212	-0.4901758709457882
H	2.8590388353103435	1.2746457419046535	-0.49348420967303186
H	3.1335150580866435	0.11346279971816568	0.5009735324998518
H	-1.4738682420088371	-2.737478858517217	0.5129106394100869
H	-0.3372230132697767	-3.1026764184917255	-0.482117193046069
H	1.075910443719296	-2.2202473874442727	1.8818181698781737
H	0.07613807551535566	1.8055155259938922	2.591891090133385
H	-1.5349295076118068	-0.8723681390923723	2.6144352936227158
H	2.1594345057055198	-1.1813030382600012	-1.851157319866697
H	-2.108083642447441	-1.213611775980911	-1.9131367153300867
H	1.045298705972047	1.5003983641294871	-2.579559510571472
