84

Nd	0.0	0.0	0.0
O	0.5500625254836129	1.645444219422636	-1.7608815639279172
O	-1.6723773150873742	-0.35908964549264594	-1.7819786573915848
O	1.2080542539789885	-1.3024550283119551	-1.7182878847312455
O	-1.6647399230947235	-0.3899548411925867	1.785662607357292
O	1.2122001142866654	-1.2729792704094618	1.7361271985451394
O	0.5438131331414072	1.654211266617346	1.7584241378473418
O	-1.6618887729474492	1.8330601743584447	0.003578550294749174
O	2.437373073861762	0.5491199352747763	-0.01150163273164974
O	-0.7547239715292856	-2.3641864501840484	-0.01625849793850913
H	0.02935139834350987	2.450384359454228	-1.895039219912977
H	-1.7537173523210676	0.12210675709693006	-2.6174684775831136
H	0.8563186869295132	-1.6455447418081088	-2.5520495131086323
H	-2.438013325271841	0.1772437451281016	1.9174678014326374
H	1.5888089131132943	-0.922908076831673	2.5559493074964577
H	1.437432432792527	2.005803482671608	1.8783297967091974
H	-1.6128562327513356	2.6525916566208694	0.515954154883483
H	-2.4938720319349272	1.8597137029428212	-0.4901758709457882
H	2.8590388353103435	1.2746457419046535	-0.49348420967303186
H	3.1335150580866435	0.11346279971816568	0.5009735324998518
H	-1.4738682420088371	-2.737478858517217	0.5129106394100869
H	-0.3372230132697767	-3.1026764184917255	-0.482117193046069
H	1.075910443719296	-2.2202473874442727	1.8818181698781737
H	0.07613807551535566	1.8055155259938922	2.591891090133385
H	-1.5349295076118068	-0.8723681390923723	2.6144352936227158
H	2.1594345057055198	-1.1813030382600012	-1.851157319866697
H	-2.108083642447441	-1.213611775980911	-1.9131367153300867
H	1.045298705972047	1.5003983641294871	-2.579559510571472
Nd	0.0	0.0	0.0
O	0.5238989275286589	1.6974024981017817	-1.7182878847312455
O	-1.6999859567618092	-0.34636796264250924	-1.7608815639279172
O	1.1471602905403184	-1.268733932119343	-1.7819786573915848
O	-1.7044535234613254	-0.35616346000821436	1.7584241378473418
O	1.1700708540201419	-1.2466873528037372	1.785662607357292
O	0.4962999910312612	1.686254934176983	1.7361271985451394
O	-1.6942244008788374	1.8362051143268976	-0.01150163273164974
O	2.424747451624029	0.5285022657476629	-0.01625849793850913
O	-0.7564857245206885	-2.355725764551713	0.003578550294749174
H	-0.05670882171959879	2.4607218010709806	-1.851157319866697
H	-1.8219943363221596	0.15502949730704918	-2.579559510571472
H	0.7711142245145923	-1.5797726056585095	-2.6174684775831136
H	-2.4557420323898755	0.24191474546252434	1.8783297967091974
H	1.5229355622598977	-0.8930648840456384	2.6144352936227158
H	1.3847790156670923	2.0418621379830464	1.8818181698781737
H	-1.6650163135992533	2.6568926404439503	0.5009735324998518
H	-2.5333626301446017	1.8386047604264304	-0.49348420967303186
H	2.8555292850487226	1.2593030797542362	-0.482117193046069
H	3.107590812480329	0.09236953167895567	0.5129106394100869
H	-1.4907162582580051	-2.7230293258730915	0.515954154883483
H	-0.3635760507810195	-3.089550031127058	-0.4901758709457882
H	1.0655135793549844	-2.1999414122494647	1.9174678014326374
H	0.004833937979581648	1.8373625571719494	2.5559493074964577
H	-1.6016454832683884	-0.8368221896006481	2.591891090133385
H	2.1050296192231897	-1.2187945463690286	-1.9131367153300867
H	-2.1367085544591164	-1.1997738687616344	-1.895039219912977
H	0.9968824029410657	1.5643443537850128	-2.5520495131086323
Nd	0.0	0.0	0.0
O	0.5252170245470558	1.627823577611989	-1.7819786573915848
O	-1.7319531815076474	-0.39494746978982653	-1.7182878847312455
O	1.149923431278196	-1.2990762567801268	-1.7608815639279172
O	-1.7085001053179267	-0.41327566376752123	1.7361271985451394
O	1.160640390319918	-1.2980478066091317	1.7584241378473418
O	0.49466906907458164	1.6366421939963238	1.785662607357292
O	-1.670023480094743	1.8356841844363854	-0.01625849793850913
O	2.418374497468138	0.5226655901932686	0.003578550294749174
O	-0.7431486729829248	-2.385325049601674	-0.01150163273164974
H	0.003054023224251523	2.4324063223499395	-1.9131367153300867
H	-1.8532010898705789	0.08120038802309604	-2.5520495131086323
H	0.7766956303501124	-1.6554278614365363	-2.579559510571472
H	-2.460689459386388	0.17838524946122614	1.8818181698781737
H	1.5255074077530328	-0.9686933363932441	2.591891090133385
H	1.3724997459168564	2.0226976671213635	1.9174678014326374
H	-1.6337225704714915	2.6451093268382615	0.5129106394100869
H	-2.5183062717789455	1.8433733387374893	-0.482117193046069
H	2.8574480827159467	1.2298363281842364	-0.4901758709457882
H	3.1035724910093405	0.07043766925222195	0.515954154883483
H	-1.4684987444873903	-2.770355440162116	0.5009735324998518
H	-0.3256762051657418	-3.113250502331084	-0.49348420967303186
H	1.0183095995973488	-2.247718228134132	1.8783297967091974
H	0.011993945351909008	1.7654330231380109	2.6144352936227158
H	-1.593642851092876	-0.9144544803402763	2.5559493074964577
H	2.107357156115606	-1.2506104906925934	-1.895039219912977
H	-2.1027256839859207	-1.2794187628109794	-1.851157319866697
H	0.9826031278064753	1.4576658485615794	-2.6174684775831136
