28

Nd	0.0	0.0	0.0
O	0.5252170245470558	1.627823577611989	-1.7819786573915848
O	-1.7319531815076474	-0.39494746978982653	-1.7182878847312455
O	1.149923431278196	-1.2990762567801268	-1.7608815639279172
O	-1.7085001053179267	-0.41327566376752123	1.7361271985451394
O	1.160640390319918	-1.2980478066091317	1.7584241378473418
O	0.49466906907458164	1.6366421939963238	1.785662607357292
O	-1.670023480094743	1.8356841844363854	-0.01625849793850913
O	2.418374497468138	0.5226655901932686	0.003578550294749174
O	-0.7431486729829248	-2.385325049601674	-0.01150163273164974
H	0.003054023224251523	2.4324063223499395	-1.9131367153300867
H	-1.8532010898705789	0.08120038802309604	-2.5520495131086323
H	0.7766956303501124	-1.6554278614365363	-2.579559510571472
H	-2.460689459386388	0.17838524946122614	1.8818181698781737
H	1.5255074077530328	-0.9686933363932441	2.591891090133385
H	1.3724997459168564	2.0226976671213635	1.9174678014326374
H	-1.6337225704714915	2.6451093268382615	0.5129106394100869
H	-2.5183062717789455	1.8433733387374893	-0.482117193046069
H	2.8574480827159467	1.2298363281842364	-0.4901758709457882
H	3.1035724910093405	0.07043766925222195	0.515954154883483
H	-1.4684987444873903	-2.770355440162116	0.5009735324998518
H	-0.3256762051657418	-3.113250502331084	-0.49348420967303186
H	1.0183095995973488	-2.247718228134132	1.8783297967091974
H	0.011993945351909008	1.7654330231380109	2.6144352936227158
H	-1.593642851092876	-0.9144544803402763	2.5559493074964577
H	2.107357156115606	-1.2506104906925934	-1.895039219912977
H	-2.1027256839859207	-1.2794187628109794	-1.851157319866697
H	0.9826031278064753	1.4576658485615794	-2.6174684775831136
